<?xml version="1.0" encoding="UTF-8"?>

<!-- generated on 2025-08-13 16:19:35 by Eclipse SUMO netedit Version 1.24.0
<neteditConfiguration xmlns:xsi="http://www.w3.org/2001/XMLSchema-instance" xsi:noNamespaceSchemaLocation="http://sumo.dlr.de/xsd/neteditConfiguration.xsd">

    <input>
        <sumo-net-file value="D:\ulster\SUMO\project\network.net.net.xml"/>
    </input>

    <output>
        <output-file value="D:\ulster\SUMO\project\network.net.net.xml"/>
    </output>

    <processing>
        <geometry.min-radius.fix.railways value="false"/>
        <geometry.avoid-overlap value="false"/>
        <geometry.max-grade.fix value="false"/>
        <offset.disable-normalization value="true"/>
        <lefthand value="0"/>
    </processing>

    <junctions>
        <no-turnarounds value="true"/>
        <junctions.corner-detail value="5"/>
        <junctions.limit-turn-speed value="5.50"/>
        <rectangular-lane-cut value="0"/>
    </junctions>

    <pedestrian>
        <walkingareas value="0"/>
    </pedestrian>

</neteditConfiguration>
-->

<net version="1.20" junctionCornerDetail="5" limitTurnSpeed="5.50" avoidOverlap="0" xmlns:xsi="http://www.w3.org/2001/XMLSchema-instance" xsi:noNamespaceSchemaLocation="http://sumo.dlr.de/xsd/net_file.xsd">

    <location netOffset="-235085.32,-2632312.69" convBoundary="0.00,0.00,2144.50,2138.58" origBoundary="90.400268,23.780440,90.421208,23.799692" projParameter="+proj=utm +zone=46 +ellps=WGS84 +datum=WGS84 +units=m +no_defs"/>

    <type id="highway.footway" priority="1" numLanes="1" speed="2.78" allow="pedestrian" oneway="1" width="2.00"/>
    <type id="highway.living_street" priority="2" numLanes="1" speed="2.78" disallow="tram rail_urban rail rail_electric rail_fast ship container cable_car subway aircraft wheelchair scooter drone" oneway="0"/>
    <type id="highway.residential" priority="3" numLanes="1" speed="13.89" disallow="tram rail_urban rail rail_electric rail_fast ship container cable_car subway aircraft wheelchair scooter drone" oneway="0"/>
    <type id="highway.secondary" priority="11" numLanes="1" speed="27.78" disallow="tram rail_urban rail rail_electric rail_fast ship container cable_car subway aircraft wheelchair scooter drone" oneway="0"/>
    <type id="highway.service" priority="1" numLanes="1" speed="5.56" allow="pedestrian delivery bicycle" oneway="0"/>
    <type id="highway.tertiary" priority="10" numLanes="1" speed="22.22" disallow="tram rail_urban rail rail_electric rail_fast ship container cable_car subway aircraft wheelchair scooter drone" oneway="0"/>
    <type id="highway.unclassified" priority="4" numLanes="1" speed="13.89" disallow="tram rail_urban rail rail_electric rail_fast ship container cable_car subway aircraft wheelchair scooter drone" oneway="0"/>

    <edge id=":1072045555_0" function="internal">
        <lane id=":1072045555_0_0" index="0" disallow="tram rail_urban rail rail_electric rail_fast ship container cable_car subway aircraft wheelchair scooter drone" speed="6.45" length="9.03" shape="943.35,1369.25 942.67,1366.86 941.38,1365.29 939.50,1364.53 937.01,1364.58"/>
    </edge>
    <edge id=":1072045555_1" function="internal">
        <lane id=":1072045555_1_0" index="0" disallow="tram rail_urban rail rail_electric rail_fast ship container cable_car subway aircraft wheelchair scooter drone" speed="13.89" length="14.41" shape="943.35,1369.25 941.33,1354.98"/>
    </edge>
    <edge id=":1072045555_2" function="internal">
        <lane id=":1072045555_2_0" index="0" disallow="tram rail_urban rail rail_electric rail_fast ship container cable_car subway aircraft wheelchair scooter drone" speed="3.65" length="1.44" shape="943.35,1369.25 943.98,1367.95"/>
    </edge>
    <edge id=":1072045555_9" function="internal">
        <lane id=":1072045555_9_0" index="0" disallow="tram rail_urban rail rail_electric rail_fast ship container cable_car subway aircraft wheelchair scooter drone" speed="3.65" length="3.23" shape="943.98,1367.95 944.72,1367.45 945.57,1367.73 946.52,1368.81"/>
    </edge>
    <edge id=":1072045555_3" function="internal">
        <lane id=":1072045555_3_0" index="0" disallow="tram rail_urban rail rail_electric rail_fast ship container cable_car subway aircraft wheelchair scooter drone" speed="13.89" length="14.44" shape="944.49,1354.52 946.52,1368.81"/>
    </edge>
    <edge id=":1072045555_4" function="internal">
        <lane id=":1072045555_4_0" index="0" disallow="tram rail_urban rail rail_electric rail_fast ship container cable_car subway aircraft wheelchair scooter drone" speed="8.06" length="4.06" shape="944.49,1354.52 944.50,1358.38 944.42,1358.57"/>
    </edge>
    <edge id=":1072045555_5" function="internal">
        <lane id=":1072045555_5_0" index="0" disallow="tram rail_urban rail rail_electric rail_fast ship container cable_car subway aircraft wheelchair scooter drone" speed="3.65" length="1.44" shape="944.49,1354.52 943.87,1355.82"/>
    </edge>
    <edge id=":1072045555_10" function="internal">
        <lane id=":1072045555_10_0" index="0" disallow="tram rail_urban rail rail_electric rail_fast ship container cable_car subway aircraft wheelchair scooter drone" speed="8.06" length="10.18" shape="944.42,1358.57 943.25,1361.35 940.76,1363.41 937.01,1364.58"/>
    </edge>
    <edge id=":1072045555_11" function="internal">
        <lane id=":1072045555_11_0" index="0" disallow="tram rail_urban rail rail_electric rail_fast ship container cable_car subway aircraft wheelchair scooter drone" speed="3.65" length="3.23" shape="943.87,1355.82 943.14,1356.33 942.29,1356.05 941.33,1354.98"/>
    </edge>
    <edge id=":1072045555_6" function="internal">
        <lane id=":1072045555_6_0" index="0" disallow="tram rail_urban rail rail_electric rail_fast ship container cable_car subway aircraft wheelchair scooter drone" speed="6.58" length="9.14" shape="936.50,1361.42 938.91,1360.67 940.52,1359.35 941.33,1357.45 941.33,1354.98"/>
    </edge>
    <edge id=":1072045555_7" function="internal">
        <lane id=":1072045555_7_0" index="0" disallow="tram rail_urban rail rail_electric rail_fast ship container cable_car subway aircraft wheelchair scooter drone" speed="7.96" length="14.29" shape="936.50,1361.42 940.42,1361.34 943.40,1362.55 945.44,1365.04 946.52,1368.81"/>
    </edge>
    <edge id=":1072045555_8" function="internal">
        <lane id=":1072045555_8_0" index="0" disallow="tram rail_urban rail rail_electric rail_fast ship container cable_car subway aircraft wheelchair scooter drone" speed="3.65" length="4.67" shape="936.50,1361.42 937.81,1362.02 938.33,1362.74 938.07,1363.59 937.01,1364.58"/>
    </edge>
    <edge id=":10844632555_0" function="internal">
        <lane id=":10844632555_0_0" index="0" allow="pedestrian delivery bicycle" speed="2.50" length="2.19" width="1.50" shape="1529.67,1094.89 1529.12,1094.49 1528.95,1094.11 1529.15,1093.75 1529.73,1093.39"/>
    </edge>
    <edge id=":11175998552_0" function="internal">
        <lane id=":11175998552_0_0" index="0" disallow="tram rail_urban rail rail_electric rail_fast ship container cable_car subway aircraft wheelchair scooter drone" speed="5.46" length="9.98" shape="1668.04,32.51 1669.34,29.54 1670.74,28.50 1672.24,29.39 1673.83,32.22"/>
    </edge>
    <edge id=":1130559220_0" function="internal">
        <lane id=":1130559220_0_0" index="0" allow="pedestrian delivery bicycle" speed="5.82" length="8.90" shape="1424.13,1637.45 1422.38,1636.37 1421.79,1634.81 1422.37,1632.77 1424.10,1630.25"/>
    </edge>
    <edge id=":1130559220_1" function="internal">
        <lane id=":1130559220_1_0" index="0" allow="pedestrian delivery bicycle" speed="3.65" length="4.67" shape="1424.13,1637.45 1423.27,1636.29 1423.17,1635.40 1423.82,1634.79 1425.22,1634.45"/>
    </edge>
    <edge id=":1130559220_2" function="internal">
        <lane id=":1130559220_2_0" index="0" disallow="tram rail_urban rail rail_electric rail_fast ship container cable_car subway aircraft wheelchair scooter drone" speed="11.11" length="10.54" shape="1415.70,1637.36 1417.06,1634.40 1418.18,1632.47 1419.55,1630.69 1421.65,1628.19"/>
        <lane id=":1130559220_2_1" index="1" disallow="tram rail_urban rail rail_electric rail_fast ship container cable_car subway aircraft wheelchair scooter drone" speed="11.11" length="10.54" shape="1418.63,1638.64 1419.88,1635.93 1420.91,1634.16 1422.17,1632.53 1424.10,1630.25"/>
    </edge>
    <edge id=":1130559220_4" function="internal">
        <lane id=":1130559220_4_0" index="0" allow="pedestrian delivery bicycle" speed="6.55" length="8.72" shape="1418.63,1638.64 1419.98,1636.24 1421.52,1634.75 1423.27,1634.15 1425.22,1634.45"/>
    </edge>
    <edge id=":1130559221_0" function="internal">
        <lane id=":1130559221_0_0" index="0" disallow="tram rail_urban rail rail_electric rail_fast ship container cable_car subway aircraft wheelchair scooter drone" speed="13.89" length="8.44" shape="1511.46,1634.23 1519.37,1636.78"/>
        <lane id=":1130559221_0_1" index="1" disallow="tram rail_urban rail rail_electric rail_fast ship container cable_car subway aircraft wheelchair scooter drone" speed="13.89" length="8.44" shape="1510.39,1637.24 1518.55,1639.87"/>
    </edge>
    <edge id=":1130559221_2" function="internal">
        <lane id=":1130559221_2_0" index="0" disallow="tram rail_urban rail rail_electric rail_fast ship container cable_car subway aircraft wheelchair scooter drone" speed="7.08" length="7.59" shape="1512.01,1642.73 1513.52,1641.12 1515.11,1640.11 1516.79,1639.69 1518.55,1639.87"/>
    </edge>
    <edge id=":1130559232_0" function="internal">
        <lane id=":1130559232_0_0" index="0" disallow="tram rail_urban rail rail_electric rail_fast ship container cable_car subway aircraft wheelchair scooter drone" speed="13.89" length="6.95" shape="1476.00,1612.79 1473.96,1612.07 1472.60,1611.48 1471.30,1610.76 1469.45,1609.64"/>
        <lane id=":1130559232_0_1" index="1" disallow="tram rail_urban rail rail_electric rail_fast ship container cable_car subway aircraft wheelchair scooter drone" speed="13.89" length="6.95" shape="1477.02,1609.75 1475.17,1609.10 1473.94,1608.57 1472.77,1607.91 1471.09,1606.90"/>
    </edge>
    <edge id=":1130559232_2" function="internal">
        <lane id=":1130559232_2_0" index="0" allow="pedestrian delivery bicycle" speed="5.31" length="5.45" shape="1477.02,1609.75 1475.83,1609.11 1475.12,1608.16 1474.89,1606.88 1475.15,1605.29"/>
    </edge>
    <edge id=":11353472580_0" function="internal">
        <lane id=":11353472580_0_0" index="0" disallow="tram rail_urban rail rail_electric rail_fast ship container cable_car subway aircraft wheelchair scooter drone" speed="27.78" length="9.75" shape="226.45,1555.75 216.86,1557.50"/>
        <lane id=":11353472580_0_1" index="1" disallow="tram rail_urban rail rail_electric rail_fast ship container cable_car subway aircraft wheelchair scooter drone" speed="27.78" length="9.75" shape="225.87,1552.61 216.28,1554.35"/>
    </edge>
    <edge id=":11353472580_2" function="internal">
        <lane id=":11353472580_2_0" index="0" allow="pedestrian delivery bicycle" speed="7.23" length="8.57" shape="225.87,1552.61 223.17,1552.87 220.98,1552.60 219.31,1551.78 218.15,1550.42"/>
    </edge>
    <edge id=":11353472580_3" function="internal">
        <lane id=":11353472580_3_0" index="0" allow="pedestrian delivery bicycle" speed="5.83" length="8.80" shape="220.95,1548.88 221.53,1550.80 220.94,1552.35 219.19,1553.53 216.28,1554.35"/>
    </edge>
    <edge id=":11353472580_4" function="internal">
        <lane id=":11353472580_4_0" index="0" allow="pedestrian delivery bicycle" speed="3.65" length="4.67" shape="220.95,1548.88 220.83,1550.32 220.32,1551.05 219.43,1551.09 218.15,1550.42"/>
    </edge>
    <edge id=":11353472587_0" function="internal">
        <lane id=":11353472587_0_0" index="0" disallow="tram rail_urban rail rail_electric rail_fast ship container cable_car subway aircraft wheelchair scooter drone" speed="27.78" length="9.48" shape="191.39,1562.14 182.07,1563.83"/>
        <lane id=":11353472587_0_1" index="1" disallow="tram rail_urban rail rail_electric rail_fast ship container cable_car subway aircraft wheelchair scooter drone" speed="27.78" length="9.48" shape="190.82,1558.99 181.49,1560.68"/>
    </edge>
    <edge id=":11353472587_2" function="internal">
        <lane id=":11353472587_2_0" index="0" allow="pedestrian delivery bicycle" speed="5.94" length="8.22" shape="190.82,1558.99 187.97,1559.26 185.92,1558.91 184.67,1557.92 184.22,1556.30"/>
    </edge>
    <edge id=":11353472587_3" function="internal">
        <lane id=":11353472587_3_0" index="0" allow="pedestrian delivery bicycle" speed="6.55" length="8.07" shape="187.42,1556.22 187.08,1557.76 185.98,1559.02 184.12,1560.00 181.49,1560.68"/>
    </edge>
    <edge id=":11353472587_4" function="internal">
        <lane id=":11353472587_4_0" index="0" allow="pedestrian delivery bicycle" speed="3.65" length="4.67" shape="187.42,1556.22 186.65,1557.44 185.86,1557.86 185.05,1557.48 184.22,1556.30"/>
    </edge>
    <edge id=":113675754_0" function="internal">
        <lane id=":113675754_0_0" index="0" disallow="tram rail_urban rail rail_electric rail_fast ship container cable_car subway aircraft wheelchair scooter drone" speed="13.89" length="14.40" shape="1829.71,1489.39 1815.53,1486.86"/>
    </edge>
    <edge id=":113675754_1" function="internal">
        <lane id=":113675754_1_0" index="0" disallow="tram rail_urban rail rail_electric rail_fast ship container cable_car subway aircraft wheelchair scooter drone" speed="8.12" length="4.01" shape="1829.71,1489.39 1826.08,1488.18 1825.95,1488.07"/>
    </edge>
    <edge id=":113675754_2" function="internal">
        <lane id=":113675754_2_0" index="0" disallow="tram rail_urban rail rail_electric rail_fast ship container cable_car subway aircraft wheelchair scooter drone" speed="3.65" length="1.44" shape="1829.71,1489.39 1828.67,1488.39"/>
    </edge>
    <edge id=":113675754_9" function="internal">
        <lane id=":113675754_9_0" index="0" disallow="tram rail_urban rail rail_electric rail_fast ship container cable_car subway aircraft wheelchair scooter drone" speed="8.12" length="10.24" shape="1825.95,1488.07 1823.65,1486.06 1822.45,1483.03 1822.46,1479.10"/>
    </edge>
    <edge id=":113675754_10" function="internal">
        <lane id=":113675754_10_0" index="0" disallow="tram rail_urban rail rail_electric rail_fast ship container cable_car subway aircraft wheelchair scooter drone" speed="3.65" length="3.23" shape="1828.67,1488.39 1828.42,1487.54 1828.96,1486.82 1830.28,1486.24"/>
    </edge>
    <edge id=":113675754_3" function="internal">
        <lane id=":113675754_3_0" index="0" disallow="tram rail_urban rail rail_electric rail_fast ship container cable_car subway aircraft wheelchair scooter drone" speed="6.65" length="9.22" shape="1825.63,1479.55 1825.62,1482.11 1826.39,1484.08 1827.94,1485.46 1830.28,1486.24"/>
    </edge>
    <edge id=":113675754_4" function="internal">
        <lane id=":113675754_4_0" index="0" disallow="tram rail_urban rail rail_electric rail_fast ship container cable_car subway aircraft wheelchair scooter drone" speed="7.94" length="14.33" shape="1825.63,1479.55 1824.53,1483.34 1822.48,1485.82 1819.48,1486.99 1815.53,1486.86"/>
    </edge>
    <edge id=":113675754_5" function="internal">
        <lane id=":113675754_5_0" index="0" disallow="tram rail_urban rail rail_electric rail_fast ship container cable_car subway aircraft wheelchair scooter drone" speed="3.65" length="4.67" shape="1825.63,1479.55 1824.67,1480.63 1823.82,1480.91 1823.09,1480.40 1822.46,1479.10"/>
    </edge>
    <edge id=":113675754_6" function="internal">
        <lane id=":113675754_6_0" index="0" disallow="tram rail_urban rail rail_electric rail_fast ship container cable_car subway aircraft wheelchair scooter drone" speed="6.43" length="9.03" shape="1816.10,1483.71 1818.59,1483.79 1820.47,1483.05 1821.77,1481.49 1822.46,1479.10"/>
    </edge>
    <edge id=":113675754_7" function="internal">
        <lane id=":113675754_7_0" index="0" disallow="tram rail_urban rail rail_electric rail_fast ship container cable_car subway aircraft wheelchair scooter drone" speed="13.89" length="14.40" shape="1816.10,1483.71 1830.28,1486.24"/>
    </edge>
    <edge id=":113675754_8" function="internal">
        <lane id=":113675754_8_0" index="0" disallow="tram rail_urban rail rail_electric rail_fast ship container cable_car subway aircraft wheelchair scooter drone" speed="3.65" length="1.44" shape="1816.10,1483.71 1817.14,1484.71"/>
    </edge>
    <edge id=":113675754_11" function="internal">
        <lane id=":113675754_11_0" index="0" disallow="tram rail_urban rail rail_electric rail_fast ship container cable_car subway aircraft wheelchair scooter drone" speed="3.65" length="3.23" shape="1817.14,1484.71 1817.39,1485.56 1816.86,1486.28 1815.53,1486.86"/>
    </edge>
    <edge id=":113675776_0" function="internal">
        <lane id=":113675776_0_0" index="0" disallow="tram rail_urban rail rail_electric rail_fast ship container cable_car subway aircraft wheelchair scooter drone" speed="13.89" length="14.43" shape="1740.44,1473.42 1726.24,1470.88"/>
    </edge>
    <edge id=":113675776_1" function="internal">
        <lane id=":113675776_1_0" index="0" disallow="tram rail_urban rail rail_electric rail_fast ship container cable_car subway aircraft wheelchair scooter drone" speed="8.32" length="3.93" shape="1740.44,1473.42 1736.88,1472.22 1736.75,1472.11"/>
    </edge>
    <edge id=":113675776_2" function="internal">
        <lane id=":113675776_2_0" index="0" disallow="tram rail_urban rail rail_electric rail_fast ship container cable_car subway aircraft wheelchair scooter drone" speed="3.65" length="1.44" shape="1740.44,1473.42 1739.40,1472.42"/>
    </edge>
    <edge id=":113675776_9" function="internal">
        <lane id=":113675776_9_0" index="0" disallow="tram rail_urban rail rail_electric rail_fast ship container cable_car subway aircraft wheelchair scooter drone" speed="8.32" length="10.41" shape="1736.75,1472.11 1734.44,1470.08 1733.14,1467.01 1732.96,1463.01"/>
    </edge>
    <edge id=":113675776_10" function="internal">
        <lane id=":113675776_10_0" index="0" disallow="tram rail_urban rail rail_electric rail_fast ship container cable_car subway aircraft wheelchair scooter drone" speed="3.65" length="3.23" shape="1739.40,1472.42 1739.15,1471.57 1739.68,1470.85 1741.00,1470.27"/>
    </edge>
    <edge id=":113675776_3" function="internal">
        <lane id=":113675776_3_0" index="0" disallow="tram rail_urban rail rail_electric rail_fast ship container cable_car subway aircraft wheelchair scooter drone" speed="6.88" length="9.51" shape="1736.15,1463.29 1736.26,1465.98 1737.10,1468.05 1738.68,1469.48 1741.00,1470.27"/>
    </edge>
    <edge id=":113675776_4" function="internal">
        <lane id=":113675776_4_0" index="0" disallow="tram rail_urban rail rail_electric rail_fast ship container cable_car subway aircraft wheelchair scooter drone" speed="7.85" length="14.55" shape="1736.15,1463.29 1735.23,1467.22 1733.27,1469.80 1730.28,1471.02 1726.24,1470.88"/>
    </edge>
    <edge id=":113675776_5" function="internal">
        <lane id=":113675776_5_0" index="0" disallow="tram rail_urban rail rail_electric rail_fast ship container cable_car subway aircraft wheelchair scooter drone" speed="3.65" length="4.67" shape="1736.15,1463.29 1735.25,1464.41 1734.41,1464.74 1733.65,1464.28 1732.96,1463.01"/>
    </edge>
    <edge id=":113675776_6" function="internal">
        <lane id=":113675776_6_0" index="0" disallow="tram rail_urban rail rail_electric rail_fast ship container cable_car subway aircraft wheelchair scooter drone" speed="6.32" length="9.04" shape="1726.80,1467.73 1729.31,1467.82 1731.17,1467.06 1732.39,1465.46 1732.96,1463.01"/>
    </edge>
    <edge id=":113675776_7" function="internal">
        <lane id=":113675776_7_0" index="0" disallow="tram rail_urban rail rail_electric rail_fast ship container cable_car subway aircraft wheelchair scooter drone" speed="13.89" length="14.43" shape="1726.80,1467.73 1741.00,1470.27"/>
    </edge>
    <edge id=":113675776_8" function="internal">
        <lane id=":113675776_8_0" index="0" disallow="tram rail_urban rail rail_electric rail_fast ship container cable_car subway aircraft wheelchair scooter drone" speed="3.65" length="1.44" shape="1726.80,1467.73 1727.84,1468.73"/>
    </edge>
    <edge id=":113675776_11" function="internal">
        <lane id=":113675776_11_0" index="0" disallow="tram rail_urban rail rail_electric rail_fast ship container cable_car subway aircraft wheelchair scooter drone" speed="3.65" length="3.23" shape="1727.84,1468.73 1728.09,1469.59 1727.56,1470.31 1726.24,1470.88"/>
    </edge>
    <edge id=":113675797_0" function="internal">
        <lane id=":113675797_0_0" index="0" disallow="tram rail_urban rail rail_electric rail_fast ship container cable_car subway aircraft wheelchair scooter drone" speed="6.27" length="9.04" shape="1644.19,1456.19 1641.67,1456.11 1639.82,1456.87 1638.64,1458.49 1638.12,1460.96"/>
    </edge>
    <edge id=":113675797_1" function="internal">
        <lane id=":113675797_1_0" index="0" disallow="tram rail_urban rail rail_electric rail_fast ship container cable_car subway aircraft wheelchair scooter drone" speed="13.89" length="15.23" shape="1644.19,1456.19 1629.17,1453.66"/>
    </edge>
    <edge id=":113675797_2" function="internal">
        <lane id=":113675797_2_0" index="0" disallow="tram rail_urban rail rail_electric rail_fast ship container cable_car subway aircraft wheelchair scooter drone" speed="8.76" length="4.16" shape="1644.19,1456.19 1640.34,1454.94 1640.26,1454.87"/>
    </edge>
    <edge id=":113675797_3" function="internal">
        <lane id=":113675797_3_0" index="0" disallow="tram rail_urban rail rail_electric rail_fast ship container cable_car subway aircraft wheelchair scooter drone" speed="3.65" length="1.44" shape="1644.19,1456.19 1643.15,1455.19"/>
    </edge>
    <edge id=":113675797_16" function="internal">
        <lane id=":113675797_16_0" index="0" disallow="tram rail_urban rail rail_electric rail_fast ship container cable_car subway aircraft wheelchair scooter drone" speed="8.76" length="10.97" shape="1640.26,1454.87 1637.62,1452.75 1636.02,1449.63 1635.55,1445.58"/>
    </edge>
    <edge id=":113675797_17" function="internal">
        <lane id=":113675797_17_0" index="0" disallow="tram rail_urban rail rail_electric rail_fast ship container cable_car subway aircraft wheelchair scooter drone" speed="3.65" length="3.23" shape="1643.15,1455.19 1642.90,1454.34 1643.43,1453.62 1644.75,1453.04"/>
    </edge>
    <edge id=":113675797_4" function="internal">
        <lane id=":113675797_4_0" index="0" disallow="tram rail_urban rail rail_electric rail_fast ship container cable_car subway aircraft wheelchair scooter drone" speed="7.40" length="10.53" shape="1638.75,1445.64 1639.08,1448.47 1640.19,1450.64 1642.08,1452.17 1644.75,1453.04"/>
    </edge>
    <edge id=":113675797_5" function="internal">
        <lane id=":113675797_5_0" index="0" disallow="tram rail_urban rail rail_electric rail_fast ship container cable_car subway aircraft wheelchair scooter drone" speed="13.89" length="15.33" shape="1638.75,1445.64 1638.12,1460.96"/>
    </edge>
    <edge id=":113675797_6" function="internal">
        <lane id=":113675797_6_0" index="0" disallow="tram rail_urban rail rail_electric rail_fast ship container cable_car subway aircraft wheelchair scooter drone" speed="7.78" length="14.74" shape="1638.75,1445.64 1638.08,1449.71 1636.26,1452.40 1633.29,1453.72 1629.17,1453.66"/>
    </edge>
    <edge id=":113675797_7" function="internal">
        <lane id=":113675797_7_0" index="0" disallow="tram rail_urban rail rail_electric rail_fast ship container cable_car subway aircraft wheelchair scooter drone" speed="3.65" length="4.67" shape="1638.75,1445.64 1637.92,1446.82 1637.12,1447.21 1636.32,1446.79 1635.55,1445.58"/>
    </edge>
    <edge id=":113675797_8" function="internal">
        <lane id=":113675797_8_0" index="0" disallow="tram rail_urban rail rail_electric rail_fast ship container cable_car subway aircraft wheelchair scooter drone" speed="6.23" length="9.05" shape="1629.67,1450.50 1632.20,1450.54 1634.02,1449.73 1635.14,1448.07 1635.55,1445.58"/>
    </edge>
    <edge id=":113675797_9" function="internal">
        <lane id=":113675797_9_0" index="0" disallow="tram rail_urban rail rail_electric rail_fast ship container cable_car subway aircraft wheelchair scooter drone" speed="13.89" length="15.30" shape="1629.67,1450.50 1644.75,1453.04"/>
    </edge>
    <edge id=":113675797_10" function="internal">
        <lane id=":113675797_10_0" index="0" disallow="tram rail_urban rail rail_electric rail_fast ship container cable_car subway aircraft wheelchair scooter drone" speed="8.51" length="4.35" shape="1629.67,1450.50 1633.58,1451.69 1633.79,1451.85"/>
    </edge>
    <edge id=":113675797_11" function="internal">
        <lane id=":113675797_11_0" index="0" disallow="tram rail_urban rail rail_electric rail_fast ship container cable_car subway aircraft wheelchair scooter drone" speed="3.65" length="1.44" shape="1629.67,1450.50 1630.73,1451.48"/>
    </edge>
    <edge id=":113675797_18" function="internal">
        <lane id=":113675797_18_0" index="0" disallow="tram rail_urban rail rail_electric rail_fast ship container cable_car subway aircraft wheelchair scooter drone" speed="8.51" length="10.68" shape="1633.79,1451.85 1636.29,1453.83 1637.81,1456.92 1638.12,1460.96"/>
    </edge>
    <edge id=":113675797_19" function="internal">
        <lane id=":113675797_19_0" index="0" disallow="tram rail_urban rail rail_electric rail_fast ship container cable_car subway aircraft wheelchair scooter drone" speed="3.65" length="3.23" shape="1630.73,1451.48 1631.00,1452.33 1630.48,1453.06 1629.17,1453.66"/>
    </edge>
    <edge id=":113675797_12" function="internal">
        <lane id=":113675797_12_0" index="0" disallow="tram rail_urban rail rail_electric rail_fast ship container cable_car subway aircraft wheelchair scooter drone" speed="7.12" length="10.21" shape="1634.93,1460.76 1634.71,1458.02 1633.68,1455.92 1631.83,1454.47 1629.17,1453.66"/>
    </edge>
    <edge id=":113675797_13" function="internal">
        <lane id=":113675797_13_0" index="0" disallow="tram rail_urban rail rail_electric rail_fast ship container cable_car subway aircraft wheelchair scooter drone" speed="13.89" length="15.19" shape="1634.93,1460.76 1635.55,1445.58"/>
    </edge>
    <edge id=":113675797_14" function="internal">
        <lane id=":113675797_14_0" index="0" disallow="tram rail_urban rail rail_electric rail_fast ship container cable_car subway aircraft wheelchair scooter drone" speed="7.81" length="14.65" shape="1634.93,1460.76 1635.76,1456.76 1637.68,1454.14 1640.68,1452.90 1644.75,1453.04"/>
    </edge>
    <edge id=":113675797_15" function="internal">
        <lane id=":113675797_15_0" index="0" disallow="tram rail_urban rail rail_electric rail_fast ship container cable_car subway aircraft wheelchair scooter drone" speed="3.65" length="4.67" shape="1634.93,1460.76 1635.80,1459.61 1636.63,1459.26 1637.40,1459.71 1638.12,1460.96"/>
    </edge>
    <edge id=":113675891_0" function="internal">
        <lane id=":113675891_0_0" index="0" disallow="tram rail_urban rail rail_electric rail_fast ship container cable_car subway aircraft wheelchair scooter drone" speed="3.65" length="4.67" shape="2038.00,1523.41 2039.04,1524.40 2039.29,1525.26 2038.75,1525.98 2037.43,1526.56"/>
    </edge>
    <edge id=":113675942_0" function="internal">
        <lane id=":113675942_0_0" index="0" disallow="tram rail_urban rail rail_electric rail_fast ship container cable_car subway aircraft wheelchair scooter drone" speed="3.65" length="4.67" shape="2125.10,1363.61 2126.17,1364.58 2126.44,1365.43 2125.93,1366.16 2124.62,1366.78"/>
    </edge>
    <edge id=":113675942_1" function="internal">
        <lane id=":113675942_1_0" index="0" disallow="tram rail_urban rail rail_electric rail_fast ship container cable_car subway aircraft wheelchair scooter drone" speed="6.20" length="9.05" shape="2128.68,1373.25 2129.08,1370.74 2128.54,1368.83 2127.05,1367.51 2124.62,1366.78"/>
    </edge>
    <edge id=":113676148_0" function="internal">
        <lane id=":113676148_0_0" index="0" disallow="tram rail_urban rail rail_electric rail_fast ship container cable_car subway aircraft wheelchair scooter drone" speed="13.89" length="14.03" shape="1895.51,1089.11 1893.92,1103.05"/>
    </edge>
    <edge id=":113676148_1" function="internal">
        <lane id=":113676148_1_0" index="0" disallow="tram rail_urban rail rail_electric rail_fast ship container cable_car subway aircraft wheelchair scooter drone" speed="8.00" length="3.85" shape="1895.51,1089.11 1894.43,1092.81"/>
    </edge>
    <edge id=":113676148_2" function="internal">
        <lane id=":113676148_2_0" index="0" disallow="tram rail_urban rail rail_electric rail_fast ship container cable_car subway aircraft wheelchair scooter drone" speed="3.65" length="1.44" shape="1895.51,1089.11 1894.55,1090.19"/>
    </edge>
    <edge id=":113676148_9" function="internal">
        <lane id=":113676148_9_0" index="0" disallow="tram rail_urban rail rail_electric rail_fast ship container cable_car subway aircraft wheelchair scooter drone" speed="8.00" length="10.22" shape="1894.43,1092.81 1892.43,1095.29 1889.51,1096.55 1885.66,1096.59"/>
    </edge>
    <edge id=":113676148_10" function="internal">